DEBUG = False
DEBUG_BT = False
!VERBOSITY = 9
! Bob's new option
!#override INTEGRAL_BT_CONTINUITY = True
#override ENERGYSAVEDAYS = 0.041666
!Z_RESCALE_POWER = 11
!L_RESCALE_POWER = -5
!T_RESCALE_POWER = 11
!R_RESCALE_POWER = 14
!Q_RESCALE_POWER = 23
#override DOUBLE_DIFFUSION = True
