DEBUG = False
DEBUG_BT = False
!VERBOSITY = 9
! Bob's new option
!#override INTEGRAL_BT_CONTINUITY = True
#override ENERGYSAVEDAYS = 0.041666
#override USE_LEGACY_DIABATIC_DRIVER = False
#override PARALLEL_RESTARTFILES = False
