#override RESOLN_SCALED_KHTR = True
#override KH_RES_FN_POWER = 100
#override VISC_RES_FN_POWER = 100
#override MIN_THICKNESS = 1.e-6
SAVE_INITIAL_CONDS = True
LIQUID_RUNOFF_FROM_DATA = True
DEBUG = False
DEBUG_BT = False
!VERBOSITY = 9
#override LINEARIZED_BT_CORIOLIS = False
#override BT_STRONG_DRAG = True
#override BT_NONLIN_STRESS = True
! Bob's new option
!#override INTEGRAL_BT_CONTINUITY=True
#override ENERGYSAVEDAYS = 0.041666
