DEBUG = True
DEBUG_BT = False
DEBUG_OBC = True
!VERBOSITY = 9
!#override INTEGRAL_BT_CONTINUITY = True
DIABATIC_FIRST = True
#override ENERGYSAVEDAYS = 0.041666
!Z_RESCALE_POWER = 25
!L_RESCALE_POWER = -21
!T_RESCALE_POWER = -41
!R_RESCALE_POWER = 14
!Q_RESCALE_POWER = 23
!H_RESCALE_POWER = 103
!C_RESCALE_POWER = -31
!S_RESCALE_POWER = 37
!#override DO_BRINE_PLUME = True
#override RESTART_CHECKSUMS_REQUIRED = False
TIDAL_SAL_FLATHER = True
