DEBUG = False
DEBUG_BT = False
!VERBOSITY = 9
!#override INTEGRAL_BT_CONTINUITY = True
!DIABATIC_FIRST = True
#override ENERGYSAVEDAYS = 0.041666
!Z_RESCALE_POWER = 25
!L_RESCALE_POWER = -21
!T_RESCALE_POWER = -41
!R_RESCALE_POWER = 14
!Q_RESCALE_POWER = 23
!H_RESCALE_POWER = 103
!C_RESCALE_POWER = -31
!S_RESCALE_POWER = 37
!#override DO_BRINE_PLUME = True
!#override RESTART_CHECKSUMS_REQUIRED = False
!SPLIT_RK2B = True
!OBC_REVERSE_SEGMENT_ORDER = True
!OBC_PROJECTION_BUG = True
#override LOTW_BBL_ANSWER_DATE = 99991231
#override WAVE_INTERFACE_ANSWER_DATE = 99991231
#override TIDES_ANSWER_DATE = 99991231
#override DRAG_DIFFUSIVITY_ANSWER_DATE = 99991231
#override MASS_WEIGHT_IN_PRESSURE_GRADIENT_TOP = True
!#override RESOLN_FUNCTION_OBC_BUG = True
OBC_THICKNESS_RESERVOIR_LENGTH_SCALE_OUT = 5000.0 !   [m] default = 0.0
                                ! An effective length scale for restoring the layer thickness at the boundaries
                                ! to externally imposed values when the flow is exiting the domain.
OBC_THICKNESS_RESERVOIR_LENGTH_SCALE_IN = 5000.0 !   [m] default = 0.0
                                ! An effective length scale for restoring the layer thickness at the boundaries
                                ! to values from the interior when the flow is entering the domain.
