DEBUG = True
DEBUG_BT = False
!VERBOSITY = 9
!#override INTEGRAL_BT_CONTINUITY = True
#override ENERGYSAVEDAYS = 0.041666
Z_RESCALE_POWER = 25
L_RESCALE_POWER = -21
T_RESCALE_POWER = -41
R_RESCALE_POWER = 14
Q_RESCALE_POWER = 23
H_RESCALE_POWER = 103
!DIABATIC_FIRST = True
